Circuit: * C:\Users\Lionheart\Documents\GitHub\Circuitos-I-TPs\TL2\Simulaciones\Monoetapa\JFETN\JFETN-Salida.asc

.step v1=-2.07207

Date: Mon May 16 20:46:19 2022
Total elapsed time: 0.032 seconds.

tnom = 27
temp = 27
method = trap
totiter = 3604
traniter = 0
tranpoints = 0
accept = 0
rejected = 0
matrix size = 6
fillins = 0
solver = Normal
Matrix Compiler1: 182 bytes object code size  0.1/0.0/[0.0]
Matrix Compiler2: 408 bytes object code size  0.1/0.0/[0.0]

