Circuit: * C:\Users\Lionheart\Documents\GitHub\Circuitos-I-TPs\TL2\Simulaciones\Monoetapa\JFETN\JFETN.asc

Warning: Multiple definitions of model "2n5486" Type: JFET
Direct Newton iteration for .op point succeeded.
Heightened Def Con from 8e-013 to 1.0008e-009

Date: Mon May 16 23:40:13 2022
Total elapsed time: 0.225 seconds.

tnom = 27
temp = 27
method = modified trap
totiter = 20121
traniter = 20113
tranpoints = 10019
accept = 10012
rejected = 8
matrix size = 11
fillins = 0
solver = Normal
Matrix Compiler1: 494 bytes object code size  0.1/0.1/[0.1]
Matrix Compiler2: 813 bytes object code size  0.1/0.1/[0.1]

