Circuit: * C:\Users\Lionheart\Desktop\Ejercicio C5\NPN.asc

Warning: Multiple definitions of model "2scr375p" Type: BJT
Warning: Multiple definitions of model "bc857b" Type: BJT
Warning: Multiple definitions of model "bc847c" Type: BJT
Warning: Multiple definitions of model "bc847b" Type: BJT
Direct Newton iteration for .op point succeeded.

Date: Sun May 01 18:45:07 2022
Total elapsed time: 0.026 seconds.

tnom = 27
temp = 27
method = modified trap
totiter = 4587
traniter = 4581
tranpoints = 2279
accept = 2277
rejected = 2
matrix size = 10
fillins = 0
solver = Normal
Matrix Compiler1: 560 bytes object code size  0.1/0.1/[0.1]
Matrix Compiler2: 762 bytes object code size  0.1/0.1/[0.1]

