Circuit: * C:\Users\Lionheart\Documents\GitHub\Circuitos-I-TPs\TL2\Simulaciones\Oscilador\NPN.asc

Warning: Multiple definitions of model "2scr375p" Type: BJT
Warning: Multiple definitions of model "bc857b" Type: BJT
Warning: Multiple definitions of model "bc847c" Type: BJT
Warning: Multiple definitions of model "bc847b" Type: BJT
Direct Newton iteration for .op point succeeded.

Date: Thu Jun 02 15:50:59 2022
Total elapsed time: 0.332 seconds.

tnom = 27
temp = 27
method = modified trap
totiter = 20559
traniter = 20553
tranpoints = 10135
accept = 10065
rejected = 70
matrix size = 9
fillins = 4
solver = Normal
Matrix Compiler1: 768 bytes object code size  0.1/0.1/[0.0]
Matrix Compiler2: 817 bytes object code size  0.1/0.1/[0.1]

