Circuit: * C:\Users\Lionheart\Documents\GitHub\Circuitos-I-TPs\TL2\Simulaciones\Oscilador\NPN.asc

Warning: Multiple definitions of model "2scr375p" Type: BJT
Warning: Multiple definitions of model "bc857b" Type: BJT
Warning: Multiple definitions of model "bc847c" Type: BJT
Warning: Multiple definitions of model "bc847b" Type: BJT
Per .tran options, skipping operating point for transient analysis.

Date: Wed May 25 16:21:30 2022
Total elapsed time: 0.040 seconds.

tnom = 27
temp = 27
method = modified trap
totiter = 13808
traniter = 13808
tranpoints = 5235
accept = 4481
rejected = 754
matrix size = 9
fillins = 4
solver = Normal
Matrix Compiler1: 768 bytes object code size  0.1/0.1/[0.1]
Matrix Compiler2: off  [0.1]/0.1/0.1

