Circuit: * C:\Users\Lionheart\Documents\GitHub\Circuitos-I-TPs\TL2\Simulaciones\Monoetapa\JFETN\JFETN-Salida.asc

.step v1=-1.22054

Date: Sun May 22 17:52:16 2022
Total elapsed time: 0.045 seconds.

tnom = 27
temp = 27
method = trap
totiter = 3604
traniter = 0
tranpoints = 0
accept = 0
rejected = 0
matrix size = 4
fillins = 0
solver = Normal
Matrix Compiler1: 118 bytes object code size  0.0/0.0/[0.0]
Matrix Compiler2: 216 bytes object code size  0.0/0.0/[0.0]

